%mem=15GB
%NProcShared=8
#p dsdpbep86/def2TZVPP iop(3/125=0079905785,3/78=0429604296,3/76=0310006900,3/74=1004)
# empiricaldispersion=gd3bj iop(3/174=0437700,3/175=-1,3/176=0,3/177=-1,3/178=5500000)
# SCF=(xqc)
# Opt=(MAXCYCLES=500)
# int=ultrafine

comment: 

0 2
C   -0.444108   0.393513   0.901295
C   -0.159412  -0.904882   0.699112
H   -1.146874   0.838521   1.630076
C    0.983947  -1.081558  -0.268449
H   -0.764713  -1.668105   1.122131
C    1.570729   0.342952  -0.385443
H    1.645053  -1.859781  -0.007631
H    0.507667  -1.391347  -1.277407
C    0.451434   1.293728   0.092302
H    2.487733   0.350305   0.273881
H    1.950247   0.581676  -1.401471
H    0.999141   2.201408   0.666040
H   -0.094491   1.726501  -0.658752
O   -2.262498  -0.043557  -0.650845
H   -1.681953  -0.389746  -1.453915

