%mem=2GB
%NProcShared=8
#P wb97xd/def2svp
# SCF=(xqc)
# POpt=(CALCFC,TS,NOEIGEN,MAXCYCLES=60)
# Freq
# int=ultrafine

comment: 

0 2
C  
C  1    R1 
H  1    R2  2    A2 
C  2    R3  1    A3  3    D3 
H  2    R4  1    A4  4    D4 
C  4    R5  2    A5  1    D5 
H  4    R6  2    A6  6    D6 
H  4    R7  2    A7  6    D7 
C  6    R8  4    A8  2    D8 
H  6    R9  4    A9  9    D9 
H  6   R10  4   A10  9   D10 
H  9   R11  6   A11  4   D11 
H  9   R12  6   A12  12   D12 
O  1   R13  2   A13  3   D13 
H  14   R14  1   A14  2   D14 
  Variables:
R1   =      1.349 
R2   =      1.0922
R3   =      1.503 
R4   =      1.0922
R5   =      1.5429
R6   =      1.1056
R7   =      1.1001
R8   =      1.5429
R9   =      1.0991
R10  =      1.0984
R11  =      1.1056
R12  =      1.1001
R13  =      2.4105
R14  =      0.9702
A2   =    124.9662
A3   =    111.6458
A4   =    124.9673
A5   =    103.1955
A6   =    109.6741
A7   =    112.2199
A8   =    105.5931
A9   =    112.9066
A10  =    108.6862
A11  =    112.2598
A12  =    112.6909
A13  =     73.7458
A14  =     90.112 
D3   =    184.2529
D4   =    175.7734
D5   =    346.7072
D6   =    119.8032
D7   =    238.4131
D8   =     20.6981
D9   =    123.8225
D10  =    243.543 
D11  =     97.3131
D12  =    120.7218
D13  =    266.9045
D14  =     90.0449
