 16
-345.796848796
C   -1.848912  -1.376796  -0.490779
C   -1.031875  -1.092727   0.546555
H   -1.850614  -0.755310  -1.390969
H   -2.526762  -2.231849  -0.462527
C   -0.091056   0.002981   0.569398
H   -1.028363  -1.744493   1.426885
C    1.740089  -0.842078  -0.205472
O   -0.226144   0.982691  -0.380764
H    0.277815   0.353072   1.539746
C    2.717806   0.111343  -0.107369
H    1.235834  -1.008613  -1.161584
H    1.740503  -1.694305   0.480310
H    3.357582   0.181817   0.776287
H    2.819194   0.893859  -0.862553
O   -1.142258   1.967279   0.121418
H   -1.994279   1.589713  -0.144814