%mem=15GB
%NProcShared=8
#p dsdpbep86/def2TZVPP iop(3/125=0079905785,3/78=0429604296,3/76=0310006900,3/74=1004)
# empiricaldispersion=gd3bj iop(3/174=0437700,3/175=-1,3/176=0,3/177=-1,3/178=5500000)
# SCF=(xqc)
# Freq
# int=ultrafine

comment: 

0 2
C  
C  1    R1 
H  1    R2  2    A2 
C  2    R3  1    A3  3    D3 
H  2    R4  1    A4  4    D4 
C  4    R5  2    A5  1    D5 
H  4    R6  2    A6  6    D6 
H  4    R7  2    A7  6    D7 
C  6    R8  4    A8  2    D8 
H  6    R9  4    A9  9    D9 
H  6   R10  4   A10  9   D10 
H  9   R11  6   A11  4   D11 
H  9   R12  6   A12  12   D12 
O  1   R13  2   A13  3   D13 
H  14   R14  1   A14  2   D14 
  Variables:
R1   =      1.3394
R2   =      1.0821
R3   =      1.509 
R4   =      1.0821
R5   =      1.5449
R6   =      1.0923
R7   =      1.0973
R8   =      1.5449
R9   =      1.0921
R10  =      1.0907
R11  =      1.0923
R12  =      1.0973
R13  =      2.7511
R14  =      0.9684
A2   =    124.8337
A3   =    111.7647
A4   =    124.8345
A5   =    102.8998
A6   =    112.8571
A7   =    110.3372
A8   =    105.4404
A9   =    108.9064
A10  =    112.9486
A11  =    112.4507
A12  =    112.007 
A13  =     75.8603
A14  =     77.0804
D3   =    177.6491
D4   =    182.335 
D5   =     13.9829
D6   =    121.4466
D7   =    240.3365
D8   =    338.2588
D9   =    116.7383
D10  =    236.206 
D11  =    143.4592
D12  =    119.773 
D13  =    286.939 
D14  =    273.0628
