%mem=28GB
%NProcShared=6
#P wb97xd/def2svp
# SCF=(xqc)
# POpt=()
# int=ultrafine

comment: 

0 2
C  
C  1    R1 
H  1    R2  2    A2 
C  2    R3  1    A3  3    D3 
H  2    R4  1    A4  4    D4 
C  4    R5  2    A5  1    D5 
H  4    R6  2    A6  6    D6 
H  6    R7  4    A7  2    D7 
H  6    R8  4    A8  8    D8 
C  6    R9  4    A9  8    D9 
H  10   R10  6   A10  4   D10 
O  10   R11  6   A11  11   D11 
O  12   R12  10   A12  1   D12 
H  13   R13  12   A13  10   D13 
  Variables:
R1   =      1.4292
R2   =      1.0935
R3   =      1.3926
R4   =      1.0902
R5   =      1.3936
R6   =      1.0949
R7   =      1.0874
R8   =      1.0952
R10  =      1.0965
R11  =      1.3699
R12  =      1.4313
R13  =      0.967 
A2   =    123.4075
A3   =    110.8488
A4   =    124.8306
A5   =    119.1007
A6   =    121.3139
A7   =    124.142 
A8   =    118.2106
A9   =     89.2766
A10  =    127.7952
A11  =     73.7366
A12  =    106.2417
A13  =     99.5654
D3   =    222.003 
D4   =    176.8271
D5   =      9.1736
D6   =    183.2824
D7   =     34.1281
D8   =    158.4502
D9   =    301.8354
D10  =    158.368 
D11  =    103.2428
D12  =    132.5087
D13  =    138.2094
  Constants:
R9   =      2.20

