%mem=15GB
%NProcShared=8
#p dsdpbep86/def2TZVPP iop(3/125=0079905785,3/78=0429604296,3/76=0310006900,3/74=1004)
# empiricaldispersion=gd3bj iop(3/174=0437700,3/175=-1,3/176=0,3/177=-1,3/178=5500000)
# SCF=(xqc)
# Opt=(MAXCYCLES=500)
# int=ultrafine

comment: 

0 2
C   -0.005031  -0.668948   1.059384
C   -0.005144   0.669106   1.059324
H    0.487690  -1.294248   1.802882
C   -0.639819   1.232065  -0.188367
H    0.487809   1.294543   1.802579
C   -1.330380  -0.000095  -0.813463
H   -1.361200   2.040569   0.050535
H    0.108812   1.668587  -0.869611
C   -0.639690  -1.232120  -0.188224
H   -2.404557  -0.000138  -0.535179
H   -1.294377  -0.000156  -1.911808
H   -1.360987  -2.040665   0.050783
H    0.108975  -1.668644  -0.869431
O    2.312358   0.000006  -0.685362
H    2.899871   0.000040   0.298941

