%mem=15GB
%NProcShared=8
#p dsdpbep86/def2TZVPP iop(3/125=0079905785,3/78=0429604296,3/76=0310006900,3/74=1004)
# empiricaldispersion=gd3bj iop(3/174=0437700,3/175=-1,3/176=0,3/177=-1,3/178=5500000)
# SCF=(xqc)
# Opt=(MAXCYCLES=500)
# int=ultrafine

comment: 

0 2
C   -0.534170   0.428798   0.812410
C   -0.222896  -0.898316   0.755656
H   -1.399938   0.806991   1.344163
C    0.888585  -1.156694  -0.218843
H   -0.693495  -1.752905   1.322624
C    1.526111   0.236318  -0.412619
H    1.699746  -1.896263   0.203673
H    0.544740  -1.615236  -1.117860
C    0.456289   1.258445   0.037339
H    2.392488   0.395798   0.240342
H    1.853038   0.382511  -1.447253
H    0.738432   2.023158   0.657982
H   -0.070842   1.720590  -0.905050
O   -1.908102   0.108571  -0.748992
H   -2.444167  -0.476359  -0.299461

