 15
-270.77518968
C   -0.455797   1.237219   0.389799
C   -1.223020   0.747407  -0.592717
H   -0.358649   2.294102   0.647034
C   -1.077291  -0.749441  -0.714208
H   -1.851371   1.346721  -1.255628
C   -0.389634  -1.134813   0.609356
H   -0.431776  -0.993647  -1.577846
H   -2.033957  -1.269497  -0.876602
C    0.326985   0.145010   1.052118
H    0.292286  -1.990015   0.510495
H   -1.155004  -1.397447   1.357936
H    1.394859   0.139567   0.618804
H    0.472601   0.252714   2.137853
O    2.342786  -0.055463  -0.610939
H    1.841261   0.588913  -1.140621