%mem=2GB
%NProcShared=8
#P wb97xd/def2svp
# SCF=(xqc)
# POpt=()
# int=ultrafine

comment: 

0 2
C  
C  1    R1 
O  1    R2  2    A2 
C  2    R3  1    A3  3    D3 
H  2    R4  1    A4  4    D4 
H  2    R5  1    A5  4    D5 
C  4    R6  2    A6  1    D6 
H  4    R7  2    A7  7    D7 
C  7    R8  4    A8  2    D8 
H  7    R9  4    A9  9    D9 
H  9   R10  7   A10  4   D10 
H  9   R11  7   A11  11   D11 
O  3   R12  1   A12  9   D12 
H  13   R13  3   A13  1   D13 
  Variables:
R1  =       1.4737
R2  =       1.3625
R3  =       1.4116
R4  =       1.09  
R6  =       1.3777
R7  =       1.0904
R8  =       1.5064
R9  =       1.09  
R10 =       1.1086
R11 =       1.1033
R12 =       1.4383
R13 =       0.9672
A2  =     122.1533
A3  =     108.3292
A4  =     123.6642
A5  =      47.2208
A6  =     110.334 
A7  =     124.2951
A8  =     110.8056
A9  =     125.4876
A10 =     112.0323
A11 =     113.8801
A12 =     108.7031
A13 =     101.2396
D3  =     159.4722
D4  =     176.3571
D5  =      99.0436
D6  =      -4.5521
D7  =     176.8635
D8  =     358.1143
D9  =     180.4633
D10 =     251.381 
D11 =     239.1156
D12 =      74.9502
D13 =     100.7168
  Constants:
R5  =       1.3424

