%mem=15GB
%NProcShared=8
#p dsdpbep86/def2TZVPP iop(3/125=0079905785,3/78=0429604296,3/76=0310006900,3/74=1004)
# empiricaldispersion=gd3bj iop(3/174=0437700,3/175=-1,3/176=0,3/177=-1,3/178=5500000)
# SCF=(xqc)
# Opt=(MAXCYCLES=500)
# int=ultrafine

comment: 

0 2
C   -0.564216   0.343015   0.778715
C   -0.148846  -0.953726   0.691204
H   -1.430690   0.622073   1.376610
C    1.024243  -1.095652  -0.238919
H   -0.589027  -1.865441   1.197745
C    1.545157   0.351914  -0.382827
H    1.867361  -1.750959   0.232461
H    0.805697  -1.589541  -1.171395
C    0.372660   1.267296   0.041096
H    2.345167   0.582891   0.314959
H    1.886301   0.565708  -1.393619
H    0.537353   2.056140   0.676992
H   -0.196751   1.691151  -0.905474
O   -2.144340   0.050603  -0.558763
H   -1.662035  -0.497430  -1.112873

