%mem=15GB
%NProcShared=8
#p dsdpbep86/def2TZVPP iop(3/125=0079905785,3/78=0429604296,3/76=0310006900,3/74=1004)
# empiricaldispersion=gd3bj iop(3/174=0437700,3/175=-1,3/176=0,3/177=-1,3/178=5500000)
# SCF=(xqc)
# Opt=(MAXCYCLES=500)
# int=ultrafine

comment: 

0 2
C   -0.423932   0.472044   0.935932
C   -0.248400  -0.851196   0.748388
H   -1.042346   0.978975   1.736495
C    0.840239  -1.134930  -0.250489
H   -0.898325  -1.572109   1.199200
C    1.536019   0.234578  -0.413239
H    1.433864  -1.947165   0.013321
H    0.287034  -1.400704  -1.233274
C    0.519503   1.283153   0.090061
H    2.461786   0.191912   0.208558
H    1.865358   0.444645  -1.445185
H    1.135982   2.148586   0.647268
H   -0.037084   1.751484  -0.643778
O   -1.976276   0.010723  -0.841248
H   -2.775333  -0.371457  -0.267429

