%mem=2GB
%NProcShared=8
#P wb97xd/def2svp
# SCF=(xqc)
# POpt=(CALCFC,TS,NOEIGEN,MAXCYCLES=60)
# int=ultrafine

comment: 

0 2
C  
C  1    R1 
O  1    R2  2    A2 
C  2    R3  1    A3  3    D3 
H  2    R4  1    A4  4    D4 
H  2    R5  1    A5  4    D5 
C  4    R6  2    A6  1    D6 
H  4    R7  2    A7  7    D7 
C  7    R8  4    A8  2    D8 
H  7    R9  4    A9  9    D9 
H  9   R10  7   A10  4   D10 
H  9   R11  7   A11  11   D11 
O  3   R12  1   A12  9   D12 
H  13   R13  3   A13  1   D13 
  Variables:
R1  =       1.4738
R2  =       1.3608
R3  =       1.4118
R4  =       1.0899
R5  =       1.3424
R6  =       1.3775
R7  =       1.0904
R8  =       1.5063
R9  =       1.09  
R10 =       1.1086
R11 =       1.1033
R12 =       1.4486
R13 =       0.9671
A2  =     122.2429
A3  =     108.3256
A4  =     123.6608
A5  =      47.2728
A6  =     110.3431
A7  =     124.2855
A8  =     110.8076
A9  =     125.483 
A10 =     112.0362
A11 =     113.8766
A12 =     108.5763
A13 =     100.8646
D3  =     159.6295
D4  =     176.5793
D5  =      99.0335
D6  =      -4.5141
D7  =     176.9158
D8  =     358.1223
D9  =     180.4356
D10 =     251.3279
D11 =     239.123 
D12 =      75.4151
D13 =     102.6765

