%mem=15GB
%NProcShared=8
#p dsdpbep86/def2TZVPP iop(3/125=0079905785,3/78=0429604296,3/76=0310006900,3/74=1004)
# empiricaldispersion=gd3bj iop(3/174=0437700,3/175=-1,3/176=0,3/177=-1,3/178=5500000)
# SCF=(xqc)
# Opt=(MAXCYCLES=500)
# int=ultrafine

comment: 

0 2
C   -0.447739   0.387166   0.886463
C   -0.129122  -0.913239   0.732274
H   -1.212182   0.759989   1.576578
C    0.976566  -1.096113  -0.274416
H   -0.618885  -1.743964   1.250839
C    1.554496   0.327299  -0.420868
H    1.719851  -1.840862   0.011571
H    0.526666  -1.443519  -1.235779
C    0.433130   1.277559   0.050307
H    2.421516   0.429074   0.240528
H    1.888388   0.551689  -1.443420
H    0.811829   2.145862   0.613571
H   -0.171715   1.665801  -0.783322
O   -2.217444   0.055158  -0.638921
H   -2.282279  -1.061437  -0.655653

