%mem=28GB
%NProcShared=6
#P wb97xd/def2svp
# SCF=(xqc)
# POpt=(CALCFC,TS,NOEIGEN,MAXCYCLES=60)
# int=ultrafine

comment: 

0 2
C  
C  1    R1 
C  1    R2  2    A2 
H  1    R3  2    A3  3    D3 
C  2    R4  1    A4  3    D4 
H  2    R5  1    A5  5    D5 
H  2    R6  1    A6  5    D6 
O  5    R7  2    A7  1    D7 
H  5    R8  2    A8  8    D8 
O  8    R9  5    A9  2    D9 
C  3   R10  1   A10  2   D10 
H  3   R11  1   A11  11   D11 
H  11   R12  3   A12  1   D12 
H  10   R13  8   A13  5   D13 
  Variables:
R1   =      1.5195
R2   =      1.4561
R3   =      1.0909
R5   =      1.0985
R6   =      1.1011
R8   =      1.0949
R10  =      1.3611
R11  =      1.0903
R12  =      1.0889
R13  =      0.9666
A2   =    104.495 
A3   =    126.0854
A5   =    114.3806
A6   =    113.6774
A8   =    121.7311
A9   =    100.6533
A10  =    106.0703
A11  =    125.9704
A12  =    128.8677
A13  =     94.0111
D3   =    159.2471
D5   =    113.4797
D6   =    242.3333
D8   =    121.2253
D9   =    160.0843
D10  =    327.3092
D11  =    185.9274
D12  =    182.6557
D13  =    155.468 
R4   =      1.524 
A4   =     88.3681
D4   =     53.9799
R7   =      1.4302
A7   =     94.8515
D7   =     48.4988
R9   =      1.7136

